<?xml version="1.0" encoding="UTF-8"?>

<!-- generated on 2026-05-20T17:43:20.188404+01:00 by Eclipse SUMO netconvert 1.26.0
<netconvertConfiguration xmlns:xsi="http://www.w3.org/2001/XMLSchema-instance" xsi:noNamespaceSchemaLocation="http://sumo.dlr.de/xsd/netconvertConfiguration.xsd">

    <input>
        <osm-files value="moje_raskrizje.osm"/>
    </input>

    <output>
        <output-file value="network.net.xml"/>
    </output>

    <projection>
        <proj.utm value="true"/>
    </projection>

    <processing>
        <geometry.remove value="true"/>
    </processing>

    <tls_building>
        <tls.guess value="true"/>
    </tls_building>

    <ramp_guessing>
        <ramps.guess value="true"/>
    </ramp_guessing>

</netconvertConfiguration>
-->

<net version="1.20" junctionCornerDetail="5" limitTurnSpeed="5.50" xmlns:xsi="http://www.w3.org/2001/XMLSchema-instance" xsi:noNamespaceSchemaLocation="http://sumo.dlr.de/xsd/net_file.xsd">

    <location netOffset="-318796.85,-5046271.51" convBoundary="0.00,0.00,1306.06,1300.49" origBoundary="18.678732,45.546399,18.695132,45.558187" projParameter="+proj=utm +zone=34 +ellps=WGS84 +datum=WGS84 +units=m +no_defs"/>

    <type id="highway.cycleway" priority="1" numLanes="1" speed="5.56" allow="bicycle" oneway="0" width="2.00"/>
    <type id="highway.footway" priority="1" numLanes="1" speed="2.78" allow="pedestrian" oneway="1" width="2.00"/>
    <type id="highway.residential" priority="3" numLanes="1" speed="13.89" disallow="tram rail_urban rail rail_electric rail_fast ship container cable_car subway aircraft wheelchair scooter drone" oneway="0"/>
    <type id="highway.secondary" priority="11" numLanes="1" speed="27.78" disallow="tram rail_urban rail rail_electric rail_fast ship container cable_car subway aircraft wheelchair scooter drone" oneway="0"/>

    <edge id=":288198771_0" function="internal">
        <lane id=":288198771_0_0" index="0" disallow="tram rail_urban rail rail_electric rail_fast ship container cable_car subway aircraft wheelchair scooter drone" speed="6.47" length="8.74" shape="1071.04,1002.62 1068.11,1003.99 1066.17,1005.38 1065.21,1006.78 1065.24,1008.20"/>
    </edge>
    <edge id=":288198771_1" function="internal">
        <lane id=":288198771_1_0" index="0" disallow="tram rail_urban rail rail_electric rail_fast ship container cable_car subway aircraft wheelchair scooter drone" speed="19.44" length="14.45" shape="1071.04,1002.62 1057.60,1007.93"/>
        <lane id=":288198771_1_1" index="1" disallow="tram rail_urban rail rail_electric rail_fast ship container cable_car subway aircraft wheelchair scooter drone" speed="19.44" length="14.45" shape="1069.86,999.65 1056.43,1004.95"/>
    </edge>
    <edge id=":288198771_3" function="internal">
        <lane id=":288198771_3_0" index="0" disallow="tram rail_urban rail rail_electric rail_fast ship container cable_car subway aircraft wheelchair scooter drone" speed="8.66" length="3.74" shape="1069.86,999.65 1066.18,1000.34"/>
    </edge>
    <edge id=":288198771_4" function="internal">
        <lane id=":288198771_4_0" index="0" disallow="tram rail_urban rail rail_electric rail_fast ship container cable_car subway aircraft wheelchair scooter drone" speed="3.65" length="1.44" shape="1069.86,999.65 1068.45,999.35"/>
    </edge>
    <edge id=":288198771_13" function="internal">
        <lane id=":288198771_13_0" index="0" disallow="tram rail_urban rail rail_electric rail_fast ship container cable_car subway aircraft wheelchair scooter drone" speed="8.66" length="13.15" shape="1066.18,1000.34 1065.98,1000.38 1062.59,999.30 1059.69,996.40 1057.27,991.70"/>
    </edge>
    <edge id=":288198771_14" function="internal">
        <lane id=":288198771_14_0" index="0" disallow="tram rail_urban rail rail_electric rail_fast ship container cable_car subway aircraft wheelchair scooter drone" speed="3.65" length="3.23" shape="1068.45,999.35 1067.78,998.75 1067.86,997.86 1068.68,996.67"/>
    </edge>
    <edge id=":288198771_5" function="internal">
        <lane id=":288198771_5_0" index="0" disallow="tram rail_urban rail rail_electric rail_fast ship container cable_car subway aircraft wheelchair scooter drone" speed="6.49" length="9.03" shape="1060.25,990.54 1061.47,992.70 1063.08,993.95 1065.09,994.28 1067.50,993.70"/>
    </edge>
    <edge id=":288198771_6" function="internal">
        <lane id=":288198771_6_0" index="0" disallow="tram rail_urban rail rail_electric rail_fast ship container cable_car subway aircraft wheelchair scooter drone" speed="13.89" length="18.36" shape="1060.25,990.54 1061.55,994.61 1062.78,999.36 1063.99,1004.12 1065.24,1008.20"/>
    </edge>
    <edge id=":288198771_7" function="internal">
        <lane id=":288198771_7_0" index="0" disallow="tram rail_urban rail rail_electric rail_fast ship container cable_car subway aircraft wheelchair scooter drone" speed="8.69" length="16.86" shape="1060.25,990.54 1061.64,995.64 1061.47,999.75 1059.73,1002.85 1056.43,1004.95"/>
    </edge>
    <edge id=":288198771_8" function="internal">
        <lane id=":288198771_8_0" index="0" disallow="tram rail_urban rail rail_electric rail_fast ship container cable_car subway aircraft wheelchair scooter drone" speed="3.65" length="1.44" shape="1060.25,990.54 1059.94,991.95"/>
    </edge>
    <edge id=":288198771_15" function="internal">
        <lane id=":288198771_15_0" index="0" disallow="tram rail_urban rail rail_electric rail_fast ship container cable_car subway aircraft wheelchair scooter drone" speed="3.65" length="3.23" shape="1059.94,991.95 1059.34,992.61 1058.45,992.53 1057.27,991.70"/>
    </edge>
    <edge id=":288198771_9" function="internal">
        <lane id=":288198771_9_0" index="0" disallow="tram rail_urban rail rail_electric rail_fast ship container cable_car subway aircraft wheelchair scooter drone" speed="6.53" length="9.06" shape="1054.10,998.99 1056.25,997.77 1057.49,996.15 1057.83,994.12 1057.27,991.70"/>
    </edge>
    <edge id=":288198771_10" function="internal">
        <lane id=":288198771_10_0" index="0" disallow="tram rail_urban rail rail_electric rail_fast ship container cable_car subway aircraft wheelchair scooter drone" speed="19.44" length="14.42" shape="1054.10,998.99 1067.50,993.70"/>
        <lane id=":288198771_10_1" index="1" disallow="tram rail_urban rail rail_electric rail_fast ship container cable_car subway aircraft wheelchair scooter drone" speed="19.44" length="14.42" shape="1055.26,1001.97 1068.68,996.67"/>
    </edge>
    <edge id=":288198771_12" function="internal">
        <lane id=":288198771_12_0" index="0" disallow="tram rail_urban rail rail_electric rail_fast ship container cable_car subway aircraft wheelchair scooter drone" speed="3.65" length="1.44" shape="1055.26,1001.97 1056.67,1002.28"/>
    </edge>
    <edge id=":288198771_16" function="internal">
        <lane id=":288198771_16_0" index="0" disallow="tram rail_urban rail rail_electric rail_fast ship container cable_car subway aircraft wheelchair scooter drone" speed="3.65" length="3.23" shape="1056.67,1002.28 1057.34,1002.88 1057.26,1003.77 1056.43,1004.95"/>
    </edge>
    <edge id=":2995110498_0" function="internal">
        <lane id=":2995110498_0_0" index="0" allow="pedestrian bicycle" speed="5.56" length="0.10" width="2.00" shape="1175.58,965.26 1175.66,965.23"/>
    </edge>
    <edge id=":2995110498_1" function="internal">
        <lane id=":2995110498_1_0" index="0" allow="pedestrian bicycle" speed="5.56" length="0.10" width="2.00" shape="1174.86,963.39 1174.94,963.36"/>
    </edge>
    <edge id=":303153515_0" function="internal">
        <lane id=":303153515_0_0" index="0" disallow="tram rail_urban rail rail_electric rail_fast ship container cable_car subway aircraft wheelchair scooter drone" speed="3.65" length="4.67" shape="966.00,1040.48 964.59,1040.17 963.92,1039.58 964.00,1038.69 964.82,1037.50"/>
    </edge>
    <edge id=":417385399_0" function="internal">
        <lane id=":417385399_0_0" index="0" allow="pedestrian bicycle" speed="2.89" length="2.92" width="2.00" shape="375.12,1301.33 374.22,1301.32 373.74,1301.03 373.68,1300.47 374.04,1299.65"/>
    </edge>
    <edge id=":526090200_0" function="internal">
        <lane id=":526090200_0_0" index="0" disallow="tram rail_urban rail rail_electric rail_fast ship container cable_car subway aircraft wheelchair scooter drone" speed="13.89" length="4.74" shape="1056.50,989.71 1054.79,985.29"/>
    </edge>
    <edge id=":526090200_1" function="internal">
        <lane id=":526090200_1_0" index="0" disallow="tram rail_urban rail rail_electric rail_fast ship container cable_car subway aircraft wheelchair scooter drone" speed="13.89" length="4.74" shape="1057.77,984.14 1059.48,988.56"/>
    </edge>
    <edge id=":5274176953_0" function="internal">
        <lane id=":5274176953_0_0" index="0" allow="pedestrian bicycle" speed="5.56" length="5.20" width="2.00" shape="1057.77,1013.51 1052.91,1015.35"/>
    </edge>
    <edge id=":5274176953_1" function="internal">
        <lane id=":5274176953_1_0" index="0" allow="pedestrian bicycle" speed="2.89" length="2.41" width="2.00" shape="1057.77,1013.51 1056.89,1013.31 1056.47,1012.94 1056.52,1012.38 1056.75,1012.06"/>
    </edge>
    <edge id=":5274176953_4" function="internal">
        <lane id=":5274176953_4_0" index="0" allow="pedestrian bicycle" speed="2.89" length="0.51" width="2.00" shape="1056.75,1012.06 1057.04,1011.64"/>
    </edge>
    <edge id=":5274176953_2" function="internal">
        <lane id=":5274176953_2_0" index="0" allow="pedestrian bicycle" speed="5.56" length="5.16" width="2.00" shape="1052.22,1013.47 1057.04,1011.64"/>
    </edge>
    <edge id=":5274176953_3" function="internal">
        <lane id=":5274176953_3_0" index="0" allow="pedestrian bicycle" speed="2.89" length="0.79" width="2.00" shape="1052.22,1013.47 1052.99,1013.66"/>
    </edge>
    <edge id=":5274176953_5" function="internal">
        <lane id=":5274176953_5_0" index="0" allow="pedestrian bicycle" speed="2.89" length="2.13" width="2.00" shape="1052.99,1013.66 1053.09,1013.68 1053.50,1014.07 1053.44,1014.62 1052.91,1015.35"/>
    </edge>
    <edge id=":5274176954_0" function="internal">
        <lane id=":5274176954_0_0" index="0" allow="pedestrian bicycle" speed="5.56" length="5.04" width="2.00" shape="1074.55,1006.60 1069.91,1008.57"/>
    </edge>
    <edge id=":5274176954_1" function="internal">
        <lane id=":5274176954_1_0" index="0" allow="pedestrian bicycle" speed="2.89" length="2.92" width="2.00" shape="1074.55,1006.60 1073.67,1006.42 1073.25,1006.05 1073.29,1005.50 1073.80,1004.75"/>
    </edge>
    <edge id=":5274176954_2" function="internal">
        <lane id=":5274176954_2_0" index="0" allow="pedestrian bicycle" speed="5.56" length="5.10" width="2.00" shape="1069.11,1006.74 1073.80,1004.75"/>
    </edge>
    <edge id=":5274176954_3" function="internal">
        <lane id=":5274176954_3_0" index="0" allow="pedestrian bicycle" speed="2.89" length="2.92" width="2.00" shape="1069.11,1006.74 1070.00,1006.90 1070.42,1007.25 1070.40,1007.81 1069.91,1008.57"/>
    </edge>
    <edge id=":5643878506_0" function="internal">
        <lane id=":5643878506_0_0" index="0" disallow="tram rail_urban rail rail_electric rail_fast ship container cable_car subway aircraft wheelchair scooter drone" speed="3.65" length="4.67" shape="1173.20,955.28 1174.60,955.59 1175.26,956.20 1175.18,957.09 1174.34,958.26"/>
    </edge>
    <edge id=":5643878507_0" function="internal">
        <lane id=":5643878507_0_0" index="0" disallow="tram rail_urban rail rail_electric rail_fast ship container cable_car subway aircraft wheelchair scooter drone" speed="19.44" length="0.25" shape="1165.91,964.92 1165.70,965.00"/>
        <lane id=":5643878507_0_1" index="1" disallow="tram rail_urban rail rail_electric rail_fast ship container cable_car subway aircraft wheelchair scooter drone" speed="19.44" length="0.25" shape="1164.77,961.93 1164.52,962.03"/>
    </edge>
    <edge id=":5643878507_2" function="internal">
        <lane id=":5643878507_2_0" index="0" disallow="tram rail_urban rail rail_electric rail_fast ship container cable_car subway aircraft wheelchair scooter drone" speed="19.44" length="0.33" shape="1162.15,956.08 1162.48,955.96"/>
        <lane id=":5643878507_2_1" index="1" disallow="tram rail_urban rail rail_electric rail_fast ship container cable_car subway aircraft wheelchair scooter drone" speed="19.44" length="0.33" shape="1163.33,959.06 1163.62,958.94"/>
    </edge>
    <edge id=":5643878509_0" function="internal">
        <lane id=":5643878509_0_0" index="0" disallow="tram rail_urban rail rail_electric rail_fast ship container cable_car subway aircraft wheelchair scooter drone" speed="19.44" length="6.02" shape="1056.82,1008.24 1051.22,1010.44"/>
        <lane id=":5643878509_0_1" index="1" disallow="tram rail_urban rail rail_electric rail_fast ship container cable_car subway aircraft wheelchair scooter drone" speed="19.44" length="6.02" shape="1055.65,1005.26 1050.04,1007.47"/>
    </edge>
    <edge id=":5643878509_2" function="internal">
        <lane id=":5643878509_2_0" index="0" disallow="tram rail_urban rail rail_electric rail_fast ship container cable_car subway aircraft wheelchair scooter drone" speed="19.44" length="6.05" shape="1047.68,1001.52 1053.31,999.30"/>
        <lane id=":5643878509_2_1" index="1" disallow="tram rail_urban rail rail_electric rail_fast ship container cable_car subway aircraft wheelchair scooter drone" speed="19.44" length="6.05" shape="1048.86,1004.49 1054.48,1002.28"/>
    </edge>
    <edge id=":5643878511_0" function="internal">
        <lane id=":5643878511_0_0" index="0" disallow="tram rail_urban rail rail_electric rail_fast ship container cable_car subway aircraft wheelchair scooter drone" speed="19.44" length="0.30" shape="971.70,1041.67 971.42,1041.78"/>
        <lane id=":5643878511_0_1" index="1" disallow="tram rail_urban rail rail_electric rail_fast ship container cable_car subway aircraft wheelchair scooter drone" speed="19.44" length="0.30" shape="970.52,1038.69 970.25,1038.80"/>
    </edge>
    <edge id=":5643878511_2" function="internal">
        <lane id=":5643878511_2_0" index="0" disallow="tram rail_urban rail rail_electric rail_fast ship container cable_car subway aircraft wheelchair scooter drone" speed="19.44" length="0.30" shape="967.90,1032.85 968.18,1032.74"/>
        <lane id=":5643878511_2_1" index="1" disallow="tram rail_urban rail rail_electric rail_fast ship container cable_car subway aircraft wheelchair scooter drone" speed="19.44" length="0.30" shape="969.07,1035.83 969.35,1035.72"/>
    </edge>
    <edge id=":6708306573_0" function="internal">
        <lane id=":6708306573_0_0" index="0" disallow="tram rail_urban rail rail_electric rail_fast ship container cable_car subway aircraft wheelchair scooter drone" speed="13.89" length="0.35" shape="1054.71,985.11 1054.84,985.43"/>
    </edge>
    <edge id=":6708306573_1" function="internal">
        <lane id=":6708306573_1_0" index="0" disallow="tram rail_urban rail rail_electric rail_fast ship container cable_car subway aircraft wheelchair scooter drone" speed="13.89" length="0.34" shape="1057.82,984.27 1057.70,983.95"/>
    </edge>
    <edge id=":6708306574_0" function="internal">
        <lane id=":6708306574_0_0" index="0" disallow="tram rail_urban rail rail_electric rail_fast ship container cable_car subway aircraft wheelchair scooter drone" speed="19.44" length="0.31" shape="1050.88,1010.58 1050.59,1010.69"/>
        <lane id=":6708306574_0_1" index="1" disallow="tram rail_urban rail rail_electric rail_fast ship container cable_car subway aircraft wheelchair scooter drone" speed="19.44" length="0.31" shape="1049.70,1007.60 1049.42,1007.71"/>
    </edge>
    <edge id=":6708306574_2" function="internal">
        <lane id=":6708306574_2_0" index="0" disallow="tram rail_urban rail rail_electric rail_fast ship container cable_car subway aircraft wheelchair scooter drone" speed="19.44" length="0.29" shape="1047.08,1001.76 1047.34,1001.65"/>
        <lane id=":6708306574_2_1" index="1" disallow="tram rail_urban rail rail_electric rail_fast ship container cable_car subway aircraft wheelchair scooter drone" speed="19.44" length="0.29" shape="1048.25,1004.74 1048.52,1004.63"/>
    </edge>
    <edge id=":6708306575_0" function="internal">
        <lane id=":6708306575_0_0" index="0" disallow="tram rail_urban rail rail_electric rail_fast ship container cable_car subway aircraft wheelchair scooter drone" speed="19.44" length="0.10" shape="1079.90,999.10 1079.90,999.10"/>
        <lane id=":6708306575_0_1" index="1" disallow="tram rail_urban rail rail_electric rail_fast ship container cable_car subway aircraft wheelchair scooter drone" speed="19.44" length="0.10" shape="1078.72,996.13 1078.72,996.13"/>
    </edge>
    <edge id=":6708306575_2" function="internal">
        <lane id=":6708306575_2_0" index="0" disallow="tram rail_urban rail rail_electric rail_fast ship container cable_car subway aircraft wheelchair scooter drone" speed="19.44" length="0.10" shape="1076.36,990.18 1076.36,990.18"/>
        <lane id=":6708306575_2_1" index="1" disallow="tram rail_urban rail rail_electric rail_fast ship container cable_car subway aircraft wheelchair scooter drone" speed="19.44" length="0.10" shape="1077.54,993.15 1077.54,993.15"/>
    </edge>
    <edge id=":893326441_0" function="internal">
        <lane id=":893326441_0_0" index="0" allow="pedestrian bicycle" speed="5.56" length="0.22" width="2.00" shape="599.94,1192.29 599.73,1192.38"/>
    </edge>
    <edge id=":893326441_1" function="internal">
        <lane id=":893326441_1_0" index="0" allow="pedestrian bicycle" speed="5.56" length="0.28" width="2.00" shape="598.89,1190.57 599.15,1190.45"/>
    </edge>
    <edge id=":9032096435_0" function="internal">
        <lane id=":9032096435_0_0" index="0" disallow="tram rail_urban rail rail_electric rail_fast ship container cable_car subway aircraft wheelchair scooter drone" speed="3.65" length="4.67" shape="1019.47,897.84 1019.50,896.40 1019.96,895.63 1020.85,895.54 1022.17,896.12"/>
    </edge>
    <edge id=":906954906_0" function="internal">
        <lane id=":906954906_0_0" index="0" allow="pedestrian bicycle" speed="2.89" length="2.92" width="2.00" shape="1184.23,960.20 1185.10,960.44 1185.50,960.83 1185.42,961.38 1184.87,962.10"/>
    </edge>
    <edge id=":907117920_0" function="internal">
        <lane id=":907117920_0_0" index="0" allow="pedestrian bicycle" speed="5.56" length="0.30" width="2.00" shape="679.56,1160.68 679.28,1160.79"/>
    </edge>
    <edge id=":907117920_1" function="internal">
        <lane id=":907117920_1_0" index="0" allow="pedestrian bicycle" speed="5.56" length="0.29" width="2.00" shape="678.56,1158.92 678.83,1158.82"/>
    </edge>
    <edge id=":907117967_0" function="internal">
        <lane id=":907117967_0_0" index="0" allow="pedestrian bicycle" speed="4.89" length="4.80" width="2.00" shape="1069.01,1008.96 1067.75,1009.69 1066.97,1010.55 1066.68,1011.54 1066.87,1012.67"/>
    </edge>
    <edge id=":907117967_1" function="internal">
        <lane id=":907117967_1_0" index="0" allow="pedestrian bicycle" speed="5.56" length="6.41" width="2.00" shape="1069.01,1008.96 1063.09,1011.42"/>
    </edge>
    <edge id=":907117967_2" function="internal">
        <lane id=":907117967_2_0" index="0" allow="pedestrian bicycle" speed="2.89" length="2.43" width="2.00" shape="1069.01,1008.96 1068.13,1008.81 1067.70,1008.45 1067.72,1007.89 1067.95,1007.54"/>
    </edge>
    <edge id=":907117967_9" function="internal">
        <lane id=":907117967_9_0" index="0" allow="pedestrian bicycle" speed="2.89" length="0.49" width="2.00" shape="1067.95,1007.54 1068.21,1007.13"/>
    </edge>
    <edge id=":907117967_3" function="internal">
        <lane id=":907117967_3_0" index="0" allow="pedestrian bicycle" speed="4.25" length="3.41" width="2.00" shape="1065.31,1008.39 1065.78,1008.65 1066.55,1008.26 1067.42,1007.63 1068.21,1007.13"/>
    </edge>
    <edge id=":907117967_4" function="internal">
        <lane id=":907117967_4_0" index="0" disallow="tram rail_urban rail rail_electric rail_fast ship container cable_car subway aircraft wheelchair scooter drone" speed="13.89" length="4.55" shape="1065.31,1008.39 1066.87,1012.67"/>
    </edge>
    <edge id=":907117967_5" function="internal">
        <lane id=":907117967_5_0" index="0" allow="pedestrian bicycle" speed="4.73" length="4.21" width="2.00" shape="1065.31,1008.39 1065.43,1009.29 1065.10,1010.09 1064.32,1010.80 1063.09,1011.42"/>
    </edge>
    <edge id=":907117967_6" function="internal">
        <lane id=":907117967_6_0" index="0" allow="pedestrian bicycle" speed="5.56" length="6.33" width="2.00" shape="1062.36,1009.56 1068.21,1007.13"/>
    </edge>
    <edge id=":907117967_7" function="internal">
        <lane id=":907117967_7_0" index="0" allow="pedestrian bicycle" speed="5.33" length="0.55" width="2.00" shape="1062.36,1009.56 1062.91,1009.46"/>
    </edge>
    <edge id=":907117967_8" function="internal">
        <lane id=":907117967_8_0" index="0" allow="pedestrian bicycle" speed="2.89" length="0.79" width="2.00" shape="1062.36,1009.56 1063.14,1009.73"/>
    </edge>
    <edge id=":907117967_10" function="internal">
        <lane id=":907117967_10_0" index="0" allow="pedestrian bicycle" speed="5.33" length="5.67" width="2.00" shape="1062.91,1009.46 1063.75,1009.32 1064.97,1009.76 1066.01,1010.87 1066.87,1012.67"/>
    </edge>
    <edge id=":907117967_11" function="internal">
        <lane id=":907117967_11_0" index="0" allow="pedestrian bicycle" speed="2.89" length="2.13" width="2.00" shape="1063.14,1009.73 1063.24,1009.75 1063.66,1010.12 1063.61,1010.68 1063.09,1011.42"/>
    </edge>
    <edge id=":907382840_0" function="internal">
        <lane id=":907382840_0_0" index="0" allow="pedestrian bicycle" speed="5.56" length="0.57" width="2.00" shape="836.65,1100.66 836.50,1100.75 836.40,1100.80 836.29,1100.85 836.13,1100.91"/>
    </edge>
    <edge id=":907382840_1" function="internal">
        <lane id=":907382840_1_0" index="0" allow="pedestrian bicycle" speed="5.56" length="0.19" width="2.00" shape="835.45,1099.02 835.51,1099.00 835.54,1098.99 835.58,1098.97 835.62,1098.94"/>
    </edge>
    <edge id=":935456082_0" function="internal">
        <lane id=":935456082_0_0" index="0" allow="pedestrian bicycle" speed="5.56" length="0.93" width="2.00" shape="964.98,1049.95 964.77,1050.12 964.61,1050.23 964.44,1050.31 964.18,1050.41"/>
    </edge>
    <edge id=":935456082_1" function="internal">
        <lane id=":935456082_1_0" index="0" allow="pedestrian bicycle" speed="5.56" length="0.31" width="2.00" shape="963.46,1048.55 963.54,1048.52 963.60,1048.49 963.65,1048.45 963.72,1048.40"/>
    </edge>
    <edge id=":935456087_0" function="internal">
        <lane id=":935456087_0_0" index="0" allow="pedestrian bicycle" speed="5.56" length="0.10" width="2.00" shape="950.94,1055.58 950.89,1055.60"/>
    </edge>
    <edge id=":935456087_1" function="internal">
        <lane id=":935456087_1_0" index="0" allow="pedestrian bicycle" speed="5.56" length="0.10" width="2.00" shape="950.27,1053.70 950.22,1053.72"/>
    </edge>
    <edge id=":9469435150_0" function="internal">
        <lane id=":9469435150_0_0" index="0" disallow="tram rail_urban rail rail_electric rail_fast ship container cable_car subway aircraft wheelchair scooter drone" speed="19.44" length="0.30" shape="974.59,1040.53 974.32,1040.64"/>
        <lane id=":9469435150_0_1" index="1" disallow="tram rail_urban rail rail_electric rail_fast ship container cable_car subway aircraft wheelchair scooter drone" speed="19.44" length="0.30" shape="973.42,1037.55 973.15,1037.66"/>
    </edge>
    <edge id=":9469435150_2" function="internal">
        <lane id=":9469435150_2_0" index="0" disallow="tram rail_urban rail rail_electric rail_fast ship container cable_car subway aircraft wheelchair scooter drone" speed="19.44" length="0.30" shape="970.80,1031.71 971.09,1031.60"/>
        <lane id=":9469435150_2_1" index="1" disallow="tram rail_urban rail rail_electric rail_fast ship container cable_car subway aircraft wheelchair scooter drone" speed="19.44" length="0.30" shape="971.98,1034.69 972.25,1034.58"/>
    </edge>
    <edge id=":9469435155_0" function="internal">
        <lane id=":9469435155_0_0" index="0" disallow="tram rail_urban rail rail_electric rail_fast ship container cable_car subway aircraft wheelchair scooter drone" speed="19.44" length="0.30" shape="1161.36,966.73 1161.07,966.85"/>
        <lane id=":9469435155_0_1" index="1" disallow="tram rail_urban rail rail_electric rail_fast ship container cable_car subway aircraft wheelchair scooter drone" speed="19.44" length="0.30" shape="1160.17,963.76 1159.89,963.87"/>
    </edge>
    <edge id=":9469435155_2" function="internal">
        <lane id=":9469435155_2_0" index="0" disallow="tram rail_urban rail rail_electric rail_fast ship container cable_car subway aircraft wheelchair scooter drone" speed="19.44" length="0.30" shape="1157.53,957.92 1157.80,957.82"/>
        <lane id=":9469435155_2_1" index="1" disallow="tram rail_urban rail rail_electric rail_fast ship container cable_car subway aircraft wheelchair scooter drone" speed="19.44" length="0.30" shape="1158.71,960.90 1158.99,960.79"/>
    </edge>

    <edge id="-1027111942#0" from="5643878509" to="288198771" priority="11" type="highway.secondary">
        <lane id="-1027111942#0_0" index="0" disallow="tram rail_urban rail rail_electric rail_fast ship container cable_car subway aircraft wheelchair scooter drone" speed="19.44" length="0.84" shape="1053.31,999.30 1054.10,998.99"/>
        <lane id="-1027111942#0_1" index="1" disallow="tram rail_urban rail rail_electric rail_fast ship container cable_car subway aircraft wheelchair scooter drone" speed="19.44" length="0.84" shape="1054.48,1002.28 1055.26,1001.97"/>
    </edge>
    <edge id="-1027111942#1" from="6708306574" to="5643878509" priority="11" type="highway.secondary">
        <lane id="-1027111942#1_0" index="0" disallow="tram rail_urban rail rail_electric rail_fast ship container cable_car subway aircraft wheelchair scooter drone" speed="19.44" length="0.37" shape="1047.34,1001.65 1047.68,1001.52"/>
        <lane id="-1027111942#1_1" index="1" disallow="tram rail_urban rail rail_electric rail_fast ship container cable_car subway aircraft wheelchair scooter drone" speed="19.44" length="0.37" shape="1048.52,1004.63 1048.86,1004.49"/>
    </edge>
    <edge id="-1027111942#2" from="9469435150" to="6708306574" priority="11" type="highway.secondary">
        <lane id="-1027111942#2_0" index="0" disallow="tram rail_urban rail rail_electric rail_fast ship container cable_car subway aircraft wheelchair scooter drone" speed="19.44" length="81.64" shape="971.09,1031.60 1047.08,1001.76"/>
        <lane id="-1027111942#2_1" index="1" disallow="tram rail_urban rail rail_electric rail_fast ship container cable_car subway aircraft wheelchair scooter drone" speed="19.44" length="81.64" shape="972.25,1034.58 1048.25,1004.74"/>
    </edge>
    <edge id="-1027111942#3" from="5643878511" to="9469435150" priority="11" type="highway.secondary">
        <lane id="-1027111942#3_0" index="0" disallow="tram rail_urban rail rail_electric rail_fast ship container cable_car subway aircraft wheelchair scooter drone" speed="19.44" length="2.82" shape="968.18,1032.74 970.80,1031.71"/>
        <lane id="-1027111942#3_1" index="1" disallow="tram rail_urban rail rail_electric rail_fast ship container cable_car subway aircraft wheelchair scooter drone" speed="19.44" length="2.82" shape="969.35,1035.72 971.98,1034.69"/>
    </edge>
    <edge id="-1027111942#4" from="303153515" to="5643878511" priority="11" type="highway.secondary">
        <lane id="-1027111942#4_0" index="0" disallow="tram rail_urban rail rail_electric rail_fast ship container cable_car subway aircraft wheelchair scooter drone" speed="19.44" length="4.57" shape="963.65,1034.52 967.90,1032.85"/>
        <lane id="-1027111942#4_1" index="1" disallow="tram rail_urban rail rail_electric rail_fast ship container cable_car subway aircraft wheelchair scooter drone" speed="19.44" length="4.57" shape="964.82,1037.50 969.07,1035.83"/>
    </edge>
    <edge id="-688330331#0" from="5643878507" to="5643878506" priority="11" type="highway.secondary">
        <lane id="-688330331#0_0" index="0" disallow="tram rail_urban rail rail_electric rail_fast ship container cable_car subway aircraft wheelchair scooter drone" speed="19.44" length="10.25" shape="1162.48,955.96 1172.05,952.29"/>
        <lane id="-688330331#0_1" index="1" disallow="tram rail_urban rail rail_electric rail_fast ship container cable_car subway aircraft wheelchair scooter drone" speed="19.44" length="10.25" shape="1163.62,958.94 1173.20,955.28"/>
    </edge>
    <edge id="-688330331#1" from="9469435155" to="5643878507" priority="11" type="highway.secondary">
        <lane id="-688330331#1_0" index="0" disallow="tram rail_urban rail rail_electric rail_fast ship container cable_car subway aircraft wheelchair scooter drone" speed="19.44" length="4.68" shape="1157.80,957.82 1162.15,956.08"/>
        <lane id="-688330331#1_1" index="1" disallow="tram rail_urban rail rail_electric rail_fast ship container cable_car subway aircraft wheelchair scooter drone" speed="19.44" length="4.68" shape="1158.99,960.79 1163.33,959.06"/>
    </edge>
    <edge id="-688330331#2" from="6708306575" to="9469435155" priority="11" type="highway.secondary">